189586
  -OEChem-01312502342D

 93 99  0     1  0  0  0  0  0999 V2000
   11.6877    5.4345    0.0000 O   0  0  0  0  0  0  0  0  0  0  0  0
   12.3542    6.2215    0.0000 O   0  0  0  0  0  0  0  0  0  0  0  0
   13.6481    2.3635    0.0000 O   0  0  0  0  0  0  0  0  0  0  0  0
    7.7331   -0.3808    0.0000 O   0  0  0  0  0  0  0  0  0  0  0  0
    6.0010   -0.3808    0.0000 O   0  0  0  0  0  0  0  0  0  0  0  0
    6.0010   -3.3808    0.0000 O   0  0  0  0  0  0  0  0  0  0  0  0
    4.2690   -3.3808    0.0000 O   0  0  0  0  0  0  0  0  0  0  0  0
    6.0010   -5.3808    0.0000 O   0  0  0  0  0  0  0  0  0  0  0  0
    4.2690   -6.3808    0.0000 O   0  0  0  0  0  0  0  0  0  0  0  0
    2.5369   -5.3808    0.0000 O   0  0  0  0  0  0  0  0  0  0  0  0
    2.5369   -2.3808    0.0000 O   0  0  0  0  0  0  0  0  0  0  0  0
   10.6814    2.9871    0.0000 C   0  0  2  0  0  0  0  0  0  0  0  0
   12.0056    4.4859    0.0000 C   0  0  1  0  0  0  0  0  0  0  0  0
   11.6614    2.7884    0.0000 C   0  0  1  0  0  0  0  0  0  0  0  0
   12.3235    3.5378    0.0000 C   0  0  2  0  0  0  0  0  0  0  0  0
    9.9798    2.2172    0.0000 C   0  0  1  0  0  0  0  0  0  0  0  0
   10.3034    1.2271    0.0000 C   0  0  1  0  0  0  0  0  0  0  0  0
   11.0255    4.6846    0.0000 C   0  0  1  0  0  0  0  0  0  0  0  0
   10.3634    3.9352    0.0000 C   0  0  0  0  0  0  0  0  0  0  0  0
    9.4651    0.6192    0.0000 C   0  0  2  0  0  0  0  0  0  0  0  0
   12.0079    1.8061    0.0000 C   0  0  0  0  0  0  0  0  0  0  0  0
   11.3242    1.0201    0.0000 C   0  0  0  0  0  0  0  0  0  0  0  0
    8.9443    2.2127    0.0000 C   0  0  0  0  0  0  0  0  0  0  0  0
   12.6831    5.2771    0.0000 C   0  0  2  0  0  0  0  0  0  0  0  0
    8.6269    1.2271    0.0000 C   0  0  0  0  0  0  0  0  0  0  0  0
   12.6415    2.5897    0.0000 C   0  0  0  0  0  0  0  0  0  0  0  0
   13.3411    3.3152    0.0000 C   0  0  0  0  0  0  0  0  0  0  0  0
   10.6140    0.2766    0.0000 C   0  0  0  0  0  0  0  0  0  0  0  0
    9.4651   -0.3808    0.0000 C   0  0  1  0  0  0  0  0  0  0  0  0
   13.7055    5.0780    0.0000 C   0  0  0  0  0  0  0  0  0  0  0  0
   14.0367    4.0905    0.0000 C   0  0  0  0  0  0  0  0  0  0  0  0
    8.5991   -0.8808    0.0000 C   0  0  1  0  0  0  0  0  0  0  0  0
   10.3312   -0.8808    0.0000 C   0  0  0  0  0  0  0  0  0  0  0  0
    8.5991   -1.8808    0.0000 C   0  0  0  0  0  0  0  0  0  0  0  0
    7.7331   -2.3808    0.0000 C   0  0  0  0  0  0  0  0  0  0  0  0
    6.8671   -0.8808    0.0000 C   0  0  0  0  0  0  0  0  0  0  0  0
    6.8671   -1.8808    0.0000 C   0  0  0  0  0  0  0  0  0  0  0  0
    7.7331   -3.3808    0.0000 C   0  0  0  0  0  0  0  0  0  0  0  0
    6.0010   -2.3808    0.0000 C   0  0  0  0  0  0  0  0  0  0  0  0
    5.1350   -3.8808    0.0000 C   0  0  2  0  0  0  0  0  0  0  0  0
    5.1350   -4.8808    0.0000 C   0  0  1  0  0  0  0  0  0  0  0  0
    4.2690   -5.3808    0.0000 C   0  0  2  0  0  0  0  0  0  0  0  0
    3.4030   -3.8808    0.0000 C   0  0  1  0  0  0  0  0  0  0  0  0
    3.4030   -4.8808    0.0000 C   0  0  1  0  0  0  0  0  0  0  0  0
    2.5369   -3.3808    0.0000 C   0  0  0  0  0  0  0  0  0  0  0  0
   11.2442    3.6241    0.0000 H   0  0  0  0  0  0  0  0  0  0  0  0
   12.4958    2.6260    0.0000 H   0  0  0  0  0  0  0  0  0  0  0  0
    9.6347    2.9940    0.0000 H   0  0  0  0  0  0  0  0  0  0  0  0
   10.3884    5.2473    0.0000 H   0  0  0  0  0  0  0  0  0  0  0  0
    9.9771    4.4201    0.0000 H   0  0  0  0  0  0  0  0  0  0  0  0
    9.8187    3.6390    0.0000 H   0  0  0  0  0  0  0  0  0  0  0  0
    8.7080    0.2330    0.0000 H   0  0  0  0  0  0  0  0  0  0  0  0
   12.3991    1.3251    0.0000 H   0  0  0  0  0  0  0  0  0  0  0  0
   12.5487    2.1093    0.0000 H   0  0  0  0  0  0  0  0  0  0  0  0
   11.0989    0.4425    0.0000 H   0  0  0  0  0  0  0  0  0  0  0  0
   11.8548    0.6993    0.0000 H   0  0  0  0  0  0  0  0  0  0  0  0
    9.0068    2.8295    0.0000 H   0  0  0  0  0  0  0  0  0  0  0  0
    8.3375    2.3397    0.0000 H   0  0  0  0  0  0  0  0  0  0  0  0
   13.0891    5.7457    0.0000 H   0  0  0  0  0  0  0  0  0  0  0  0
    8.0600    1.4781    0.0000 H   0  0  0  0  0  0  0  0  0  0  0  0
    8.3177    0.6897    0.0000 H   0  0  0  0  0  0  0  0  0  0  0  0
   12.0537    2.3926    0.0000 H   0  0  0  0  0  0  0  0  0  0  0  0
   12.8387    2.0019    0.0000 H   0  0  0  0  0  0  0  0  0  0  0  0
   13.2293    2.7869    0.0000 H   0  0  0  0  0  0  0  0  0  0  0  0
   10.0247    0.0840    0.0000 H   0  0  0  0  0  0  0  0  0  0  0  0
   10.8066   -0.3128    0.0000 H   0  0  0  0  0  0  0  0  0  0  0  0
   11.2034    0.4692    0.0000 H   0  0  0  0  0  0  0  0  0  0  0  0
   10.0021   -0.0708    0.0000 H   0  0  0  0  0  0  0  0  0  0  0  0
   14.1142    5.5443    0.0000 H   0  0  0  0  0  0  0  0  0  0  0  0
   14.6439    3.9650    0.0000 H   0  0  0  0  0  0  0  0  0  0  0  0
    8.5991   -0.0308    0.0000 H   0  0  0  0  0  0  0  0  0  0  0  0
   12.7593    6.6908    0.0000 H   0  0  0  0  0  0  0  0  0  0  0  0
   10.0212   -1.4178    0.0000 H   0  0  0  0  0  0  0  0  0  0  0  0
   10.8681   -1.1908    0.0000 H   0  0  0  0  0  0  0  0  0  0  0  0
   10.6412   -0.3439    0.0000 H   0  0  0  0  0  0  0  0  0  0  0  0
    8.8112   -2.4634    0.0000 H   0  0  0  0  0  0  0  0  0  0  0  0
    9.2097   -1.7732    0.0000 H   0  0  0  0  0  0  0  0  0  0  0  0
    7.1131   -3.3808    0.0000 H   0  0  0  0  0  0  0  0  0  0  0  0
    7.7331   -4.0008    0.0000 H   0  0  0  0  0  0  0  0  0  0  0  0
    8.3531   -3.3808    0.0000 H   0  0  0  0  0  0  0  0  0  0  0  0
    5.7890   -1.7982    0.0000 H   0  0  0  0  0  0  0  0  0  0  0  0
    5.3905   -2.4885    0.0000 H   0  0  0  0  0  0  0  0  0  0  0  0
    5.1350   -3.2608    0.0000 H   0  0  0  0  0  0  0  0  0  0  0  0
    5.1350   -5.5008    0.0000 H   0  0  0  0  0  0  0  0  0  0  0  0
    3.7320   -5.6908    0.0000 H   0  0  0  0  0  0  0  0  0  0  0  0
    3.4030   -3.2608    0.0000 H   0  0  0  0  0  0  0  0  0  0  0  0
    3.4030   -5.5008    0.0000 H   0  0  0  0  0  0  0  0  0  0  0  0
    6.5380   -5.0708    0.0000 H   0  0  0  0  0  0  0  0  0  0  0  0
    1.9264   -3.2732    0.0000 H   0  0  0  0  0  0  0  0  0  0  0  0
    2.3249   -3.9634    0.0000 H   0  0  0  0  0  0  0  0  0  0  0  0
    3.7320   -6.6908    0.0000 H   0  0  0  0  0  0  0  0  0  0  0  0
    2.0000   -5.0708    0.0000 H   0  0  0  0  0  0  0  0  0  0  0  0
    2.0000   -2.0708    0.0000 H   0  0  0  0  0  0  0  0  0  0  0  0
 13  1  1  1  0  0  0
  1 18  1  0  0  0  0
 24  2  1  1  0  0  0
  2 72  1  0  0  0  0
  3 27  2  0  0  0  0
  4 32  1  0  0  0  0
  4 36  1  0  0  0  0
  5 36  2  0  0  0  0
  6 39  1  0  0  0  0
 40  6  1  1  0  0  0
  7 40  1  0  0  0  0
  7 43  1  0  0  0  0
 41  8  1  6  0  0  0
  8 88  1  0  0  0  0
 42  9  1  1  0  0  0
  9 91  1  0  0  0  0
 44 10  1  6  0  0  0
 10 92  1  0  0  0  0
 11 45  1  0  0  0  0
 11 93  1  0  0  0  0
 12 14  1  0  0  0  0
 12 16  1  0  0  0  0
 12 19  1  0  0  0  0
 12 46  1  1  0  0  0
 13 15  1  0  0  0  0
 13 18  1  0  0  0  0
 13 24  1  0  0  0  0
 14 15  1  0  0  0  0
 14 21  1  0  0  0  0
 14 47  1  6  0  0  0
 15 26  1  1  0  0  0
 15 27  1  0  0  0  0
 16 17  1  0  0  0  0
 16 23  1  0  0  0  0
 16 48  1  6  0  0  0
 17 20  1  0  0  0  0
 17 22  1  0  0  0  0
 17 28  1  1  0  0  0
 18 19  1  0  0  0  0
 18 49  1  6  0  0  0
 19 50  1  0  0  0  0
 19 51  1  0  0  0  0
 20 25  1  0  0  0  0
 20 29  1  0  0  0  0
 20 52  1  6  0  0  0
 21 22  1  0  0  0  0
 21 53  1  0  0  0  0
 21 54  1  0  0  0  0
 22 55  1  0  0  0  0
 22 56  1  0  0  0  0
 23 25  1  0  0  0  0
 23 57  1  0  0  0  0
 23 58  1  0  0  0  0
 24 30  1  0  0  0  0
 24 59  1  0  0  0  0
 25 60  1  0  0  0  0
 25 61  1  0  0  0  0
 26 62  1  0  0  0  0
 26 63  1  0  0  0  0
 26 64  1  0  0  0  0
 27 31  1  0  0  0  0
 28 65  1  0  0  0  0
 28 66  1  0  0  0  0
 28 67  1  0  0  0  0
 29 32  1  0  0  0  0
 29 33  1  6  0  0  0
 29 68  1  0  0  0  0
 30 31  2  0  0  0  0
 30 69  1  0  0  0  0
 31 70  1  0  0  0  0
 32 34  1  0  0  0  0
 32 71  1  6  0  0  0
 33 73  1  0  0  0  0
 33 74  1  0  0  0  0
 33 75  1  0  0  0  0
 34 35  1  0  0  0  0
 34 76  1  0  0  0  0
 34 77  1  0  0  0  0
 35 37  2  0  0  0  0
 35 38  1  0  0  0  0
 36 37  1  0  0  0  0
 37 39  1  0  0  0  0
 38 78  1  0  0  0  0
 38 79  1  0  0  0  0
 38 80  1  0  0  0  0
 39 81  1  0  0  0  0
 39 82  1  0  0  0  0
 40 41  1  0  0  0  0
 40 83  1  0  0  0  0
 41 42  1  0  0  0  0
 41 84  1  0  0  0  0
 42 44  1  0  0  0  0
 42 85  1  0  0  0  0
 43 44  1  0  0  0  0
 43 45  1  1  0  0  0
 43 86  1  0  0  0  0
 44 87  1  0  0  0  0
 45 89  1  0  0  0  0
 45 90  1  0  0  0  0
M  END
> <PUBCHEM_COMPOUND_CID>
189586

> <PUBCHEM_COMPOUND_CANONICALIZED>
1

> <PUBCHEM_CACTVS_COMPLEXITY>
1300

> <PUBCHEM_CACTVS_HBOND_ACCEPTOR>
11

> <PUBCHEM_CACTVS_HBOND_DONOR>
5

> <PUBCHEM_CACTVS_ROTATABLE_BOND>
6

> <PUBCHEM_CACTVS_SUBSKEYS>
AAADcfB8PAAAAAAAAAAAAAAAEgAAAYAAAAA0YIECBIAAAGDAAAAAGgAACAAAD1SwgAMCCAAABgCIAqDSCAAAAAAgAAAICAEAAEgRFBYAIQAiUAAF4AAPMYPK6PyPgAAAAAAAAADAAAYAADAAAQAACAAAAA==

> <PUBCHEM_IUPAC_OPENEYE_NAME>
(1S,2R,6S,7R,9R,11S,12S,15R,16S)-6-hydroxy-2,16-dimethyl-15-[(1S)-1-[(2R)-4-methyl-6-oxo-5-[[(2R,3R,4S,5S,6R)-3,4,5-trihydroxy-6-(hydroxymethyl)tetrahydropyran-2-yl]oxymethyl]-2,3-dihydropyran-2-yl]ethyl]-8-oxapentacyclo[9.7.0.02,7.07,9.012,16]octadec-4-en-3-one

> <PUBCHEM_IUPAC_CAS_NAME>
(1S,2R,6S,7R,9R,11S,12S,15R,16S)-6-hydroxy-2,16-dimethyl-15-[(1S)-1-[(2R)-4-methyl-6-oxo-5-[[(2R,3R,4S,5S,6R)-3,4,5-trihydroxy-6-(hydroxymethyl)-2-oxanyl]oxymethyl]-2,3-dihydropyran-2-yl]ethyl]-8-oxapentacyclo[9.7.0.02,7.07,9.012,16]octadec-4-en-3-one

> <PUBCHEM_IUPAC_NAME_MARKUP>
(1<I>S</I>,2<I>R</I>,6<I>S</I>,7<I>R</I>,9<I>R</I>,11<I>S</I>,12<I>S</I>,15<I>R</I>,16<I>S</I>)-6-hydroxy-2,16-dimethyl-15-[(1<I>S</I>)-1-[(2<I>R</I>)-4-methyl-6-oxo-5-[[(2<I>R</I>,3<I>R</I>,4<I>S</I>,5<I>S</I>,6<I>R</I>)-3,4,5-trihydroxy-6-(hydroxymethyl)oxan-2-yl]oxymethyl]-2,3-dihydropyran-2-yl]ethyl]-8-oxapentacyclo[9.7.0.0<SUP>2,7</SUP>.0<SUP>7,9</SUP>.0<SUP>12,16</SUP>]octadec-4-en-3-one

> <PUBCHEM_IUPAC_NAME>
(1S,2R,6S,7R,9R,11S,12S,15R,16S)-6-hydroxy-2,16-dimethyl-15-[(1S)-1-[(2R)-4-methyl-6-oxo-5-[[(2R,3R,4S,5S,6R)-3,4,5-trihydroxy-6-(hydroxymethyl)oxan-2-yl]oxymethyl]-2,3-dihydropyran-2-yl]ethyl]-8-oxapentacyclo[9.7.0.02,7.07,9.012,16]octadec-4-en-3-one

> <PUBCHEM_IUPAC_SYSTEMATIC_NAME>
(1S,2R,6S,7R,9R,11S,12S,15R,16S)-15-[(1S)-1-[(2R)-5-[[(2R,3R,4S,5S,6R)-6-(hydroxymethyl)-3,4,5-tris(oxidanyl)oxan-2-yl]oxymethyl]-4-methyl-6-oxidanylidene-2,3-dihydropyran-2-yl]ethyl]-2,16-dimethyl-6-oxidanyl-8-oxapentacyclo[9.7.0.02,7.07,9.012,16]octadec-4-en-3-one

> <PUBCHEM_IUPAC_TRADITIONAL_NAME>
(1S,2R,6S,7R,9R,11S,12S,15R,16S)-6-hydroxy-15-[(1S)-1-[(2R)-6-keto-4-methyl-5-[[(2R,3R,4S,5S,6R)-3,4,5-trihydroxy-6-methylol-tetrahydropyran-2-yl]oxymethyl]-2,3-dihydropyran-2-yl]ethyl]-2,16-dimethyl-8-oxapentacyclo[9.7.0.02,7.07,9.012,16]octadec-4-en-3-one

> <PUBCHEM_IUPAC_INCHI>
InChI=1S/C34H48O11/c1-15-11-22(43-30(41)18(15)14-42-31-29(40)28(39)27(38)23(13-35)44-31)16(2)19-5-6-20-17-12-26-34(45-26)25(37)8-7-24(36)33(34,4)21(17)9-10-32(19,20)3/h7-8,16-17,19-23,25-29,31,35,37-40H,5-6,9-14H2,1-4H3/t16-,17-,19+,20-,21-,22+,23+,25-,26+,27+,28-,29+,31+,32+,33-,34+/m0/s1

> <PUBCHEM_IUPAC_INCHIKEY>
WKCJIGSUKSPCKI-WNXUODGFSA-N

> <PUBCHEM_XLOGP3_AA>
1.7

> <PUBCHEM_EXACT_MASS>
632.31966234

> <PUBCHEM_MOLECULAR_FORMULA>
C34H48O11

> <PUBCHEM_MOLECULAR_WEIGHT>
632.7

> <PUBCHEM_SMILES>
CC1=C(C(=O)O[C@H](C1)[C@@H](C)[C@H]2CC[C@@H]3[C@@]2(CC[C@H]4[C@H]3C[C@@H]5[C@]6([C@@]4(C(=O)C=C[C@@H]6O)C)O5)C)CO[C@H]7[C@@H]([C@H]([C@@H]([C@H](O7)CO)O)O)O

> <PUBCHEM_OPENEYE_CAN_SMILES>
CC1=C(C(=O)OC(C1)C(C)C2CCC3C2(CCC4C3CC5C6(C4(C(=O)C=CC6O)C)O5)C)COC7C(C(C(C(O7)CO)O)O)O

> <PUBCHEM_OPENEYE_ISO_SMILES>
CC1=C(C(=O)O[C@H](C1)[C@@H](C)[C@H]2CC[C@@H]3[C@@]2(CC[C@H]4[C@H]3C[C@@H]5[C@]6([C@@]4(C(=O)C=C[C@@H]6O)C)O5)C)CO[C@H]7[C@@H]([C@H]([C@@H]([C@H](O7)CO)O)O)O

> <PUBCHEM_CACTVS_TPSA>
176

> <PUBCHEM_MONOISOTOPIC_WEIGHT>
632.31966234

> <PUBCHEM_TOTAL_CHARGE>
0

> <PUBCHEM_HEAVY_ATOM_COUNT>
45

> <PUBCHEM_ATOM_DEF_STEREO_COUNT>
16

> <PUBCHEM_ATOM_UDEF_STEREO_COUNT>
0

> <PUBCHEM_BOND_DEF_STEREO_COUNT>
0

> <PUBCHEM_BOND_UDEF_STEREO_COUNT>
0

> <PUBCHEM_ISOTOPIC_ATOM_COUNT>
0

> <PUBCHEM_COMPONENT_COUNT>
1

> <PUBCHEM_CACTVS_TAUTO_COUNT>
-1

> <PUBCHEM_COORDINATE_TYPE>
1
5
255

> <PUBCHEM_BONDANNOTATIONS>
13  1  5
44  10  6
12  46  5
14  47  6
15  26  5
16  48  6
17  28  5
18  49  6
24  2  5
20  52  6
29  33  6
32  71  6
43  45  5
40  6  5
41  8  6
42  9  5

$$$$
